[Format]      =  1
[Precision]   =  1e-008
[MinAngle]    =  30
[Depth]       =  20
[LengthUnits] =  meters
[ProblemType] =  planar
[Coordinates] =  cartesian
[PrevSoln] = ""
[dT] = 0
[Comment]     =  "Add comments here."
[PointProps]   = 0
[BdryProps]   = 2
  <BeginBdry>
    <BdryName> = "Inner boundary"
    <BdryType> = 2
    <Tset> = 0
    <qs>   = 0
    <beta> = 0
    <h>    = 10
    <Tinf> = 800
  <EndBdry>
  <BeginBdry>
    <BdryName> = "Outer boundary"
    <BdryType> = 2
    <Tset> = 0
    <qs>   = 0
    <beta> = 0
    <h>    = 5
    <Tinf> = 300
  <EndBdry>
[BlockProps]  = 1
  <BeginBlock>
    <BlockName> = "Brick, Common"
    <Kx> = 0.69999999999999996
    <Ky> = 0.69999999999999996
    <Kt> = 3
    <qv> = 0
  <EndBlock>
[ConductorProps]  = 0
[NumPoints] = 6
0	1	0	0	0
1	1	0	0	0
1	0	0	0	0
2	0	0	0	0
2	2	0	0	0
0	2	0	0	0
[NumSegments] = 6
2	1	-1	1	0	0	0
1	0	-1	1	0	0	0
0	5	-1	0	0	0	0
5	4	-1	2	0	0	0
4	3	-1	2	0	0	0
3	2	-1	0	0	0	0
[NumArcSegments] = 0
[NumHoles] = 0
[NumBlockLabels] = 1
0.67000000000000004	1.54	1	0.050000000000000003	0	0
[Solution]
3156
0	1	769.07918229108475	-2
0.0026666666666666666	1	769.07912808242941	-2
0	1.0026666666666666	767.9012994631621	-2
0.010437500000000001	1	769.07833252219734	-2
0.0050758657912244555	1.0050758657912244	766.83701170956999	-2
0	1.0104375000000001	764.46965220707602	-2
0.018208333333333333	1	769.07669806685374	-2
0.0090488151964077841	1.0090488151964079	765.08193635132398	-2
0	1.0182083333333334	761.03908528775446	-2
0.033750000000000002	1	769.07089426680545	-2
0.016878657989031935	1.0168786579890323	761.62271563035415	-2
0	1.0337499999999999	754.18131393517172	-2
0.06483333333333334	1	769.04733377352125	-2
0.03248105833092961	1.0324810583309305	754.72781645988425	-2
0.064308544372367479	1.0318298220688311	754.98042616280725	-2
0	1.0648333333333331	740.48067226853391	-2
0.031829822068830539	1.0643085443723679	740.69680550275928	-2
0.095916666666666678	1	769.00794376300007	-2
0.063657308110267902	1.0636573081102689	740.93935501419946	-2
0.098503767378556872	1.0349880748809754	753.52115416184313	-2
0.090605117558159656	1.0608994881219158	742.09581758468914	-2
0	1.0959166666666664	726.81032477573785	-2
0.024065524059915203	1.0883203870491511	730.13718485049139	-2
0.050107926579237336	1.0860164072029568	731.11834237302639	-2
0.127	1	768.95138625376433	-2
0.082733849264478618	1.0868672733159057	730.67084496516134	-2
0.13236112577267439	1.0607863012921463	742.0100210663428	-2
0.13685267048809549	1.0339199045174556	753.88758018229578	-2
0.11143219036235516	1.0782206613944394	734.38717282834421	-2
0	1.1269999999999998	713.17392131797158	-2
0.038145579441885506	1.1092632844787449	720.92529991201513	-2
0.056327649387412207	1.1270712681675819	713.07515201263266	-2
0.079555759099680962	1.1166709378958686	717.5768118626039	-2
0.15808333333333335	1	768.87954235515303	-2
0.10580822342025836	1.1059966208429282	722.1725014575436	-2
0.15959993979683904	1.0609420579700544	741.82055446378195	-2
0.14125606892681453	1.0952364989722763	726.74780397706922	-2
0.17186433987439373	1.0292489254975024	755.83347101893094	-2
0	1.1580833333333331	699.58091619738286	-2
0.026050984605085863	1.1331393412124462	710.46936866536532	-2
0.046412387205533936	1.1505105413310255	702.83619643521558	-2
0.076378627906999313	1.143003750105366	706.0386583716687	-2
0.10027433509159708	1.1337906671013589	709.98460404963919	-2
0.18916666666666668	1	768.79185709965498	-2
0.12599554364652407	1.125995543646527	713.27984223262274	-2
0.18160474260600679	1.0876672071870437	729.85728184118716	-2
0.19381456415535134	1.055192283206186	744.19436595974059	-2
0.16630517733920519	1.1187214862800701	716.23611258515007	-2
0.20470833333333335	1.0264830403800866	756.92274623137314	-2
0	1.1891666666666665	686.02952982801298	-2
0.026093242890956842	1.171991183972533	693.49427349118469	-2
0.069553652962574292	1.1676878631600969	695.26976866740995	-2
0.097467865403263632	1.1605202059505531	698.28428117186047	-2
0.12517508593356594	1.1710741578719768	693.5172447595985	-2
0.22025	1	768.68601423250936	-2
0.16657316121564422	1.1449212928072734	704.69507572534678	-2
0.15469174657645299	1.1682736730626675	694.5377427720199	-2
0.20663830240722741	1.111578832623626	719.07526846544977	-2
0.21164824514119199	1.0812739427856846	732.48428884250825	-2
0.22850658441265509	1.0555974502040331	743.79612051401523	-2
0.19217881882962723	1.150475748278009	702.02736401855111	-2
0.23579166666666668	1.026103764464088	756.9322815220246	-2
0	1.2202499999999998	672.53064889953407	-2
0.034613922053340587	1.2003052027720691	681.15149433395334	-2
0.070774285556843369	1.1964817622035968	682.71256531816209	-2
0.11577989815913237	1.2013913472302633	680.34688532525024	-2
0.092029566825984399	1.2103724760823917	676.57554873017079	-2
0.14341820617480441	1.1944464605941787	683.18271018001246	-2
0.25133333333333335	1	768.56047271344789	-2
0.19103031951550542	1.1919574028023951	683.82699662642642	-2
0.23048935600389914	1.11875740791719	715.6696552063313	-2
0.23305052453749403	1.1435333058153327	704.67167081695334	-2
0.24968797290042669	1.1028886395284005	722.53198695234278	-2
0.25854269526647389	1.0565397086026302	743.14548512902616	-2
0.26655852476837133	1.0820913809754056	731.64177142322046	-2
0.21567402703624747	1.1650156337001354	695.38714524793124	-2
0.26982020071224805	1.028685199505661	755.56541162875453	-2
0	1.2513333333333332	659.0839586279958	-2
0.044265280541083474	1.235362896162068	665.92709190211815	-2
0.027659701927587006	1.2586674784065222	655.89246796815314	-2
0.085283790085013633	1.2348517205571263	665.99208325172674	-2
0.13216998736463162	1.2205604612131455	671.89518181894243	-2
0.12514168002308163	1.2447822045642274	661.43905685603784	-2
0.15735934845834276	1.2193010793236496	672.22427983031059	-2
0.28241666666666665	1	768.41467997380573	-2
0.22064704732524046	1.1921947092172729	683.37884577932243	-2
0.20462973891096969	1.233145589576488	665.68215667993161	-2
0.18362509170514504	1.2172416493083067	672.85678737990702	-2
0.25884329382802429	1.1303637813858376	710.20118703774358	-2
0.26179099251935889	1.1578271789470787	697.98342161699622	-2
0.24846197782268967	1.1820194194468268	687.48323800928154	-2
0.29167765709231708	1.0913741970858992	727.20600998575082	-2
0.2873802136187632	1.1254294597272378	712.02727050037117	-2
0.28858658165394224	1.0571883200807202	742.59458655747994	-2
0.30100971445850039	1.0285795328907417	755.3898360023868	-2
0	1.2824166666666665	645.6985256493416	-2
0.067474824739864006	1.2612806103118506	654.64858544374079	-2
0.043622936301039174	1.2824166666666665	645.63576306126288	-2
0.096567328227910448	1.2742910561585581	648.89170167535121	-2
0.15227792325027997	1.2459844095342998	660.68659373418279	-2
0.13391668921333755	1.2818684716314184	645.35138900916536	-2
0.3135	1	768.25296744670993	-2
0.23722500246951658	1.2167381051462156	672.40271944594917	-2
0.19758624454162321	1.2629053053988497	652.84807645577234	-2
0.22386146324854189	1.2518532444390336	657.27571187901515	-2
0.16912801777066169	1.2672892284241646	651.28547879981545	-2
0.2833766193349142	1.1750605143224857	690.02406019004889	-2
0.26257445115592004	1.2057648428204633	676.82006163664835	-2
0.3196093323133038	1.1113253988875016	717.87959685303463	-2
0.31962619942728454	1.0716144138386496	735.76342429786177	-2
0.31057370624466413	1.1520871163134789	699.78416940713839	-2
0.34131926002668339	1.0413079551821729	749.25582056684675	-2
0	1.3134999999999999	632.37000978321498	-2
0.029384537056543415	1.3085865210810284	634.43936155095446	-2
0.062554586843603155	1.3065804039642064	635.19627461681625	-2
0.11777859562467828	1.3045166383282119	635.748907339026	-2
0.092052052048256255	1.3150770585382472	631.40690123936872	-2
0.14881548065479672	1.3067054931808482	634.5270934234411	-2
0.34458333333333335	1	768.0533885183271	-2
0.25066488413546273	1.2506648841354762	657.37166557049068	-2
0.27526838436334028	1.242203289232561	660.63866525203935	-2
0.21532218414790164	1.2855884687214951	642.79026190571835	-2
0.18698165075518597	1.2896752893858456	641.41970275072367	-2
0.23888109519401096	1.2740848936732929	647.39771098394124	-2
0.28686676506400194	1.2189136267857428	670.62259269422213	-2
0.31697355149977213	1.1868378103435029	684.21533334530136	-2
0.34807286384638192	1.0906500996958761	726.77683281988834	-2
0.35065487299433118	1.1278727560124457	709.92951101867038	-2
0.35951497769442026	1.0639507190415558	738.73542950779256	-2
0.34364880975015938	1.1645211938007094	693.616956097806	-2
0.3756666666666667	1	767.81393238597377	-2
0.39136629032962372	1.0273336815798864	755.1101870030501	-2
0	1.3445833333333332	619.11123243628867	-2
0.046673110607682991	1.3328496313037799	624.03774301614783	-2
0.13057826948659582	1.3292056210620267	625.07465522761584	-2
0.091526154358442163	1.3561088649902475	613.9132524846367	-2
0.11899038730922401	1.354180111418372	614.53065119903431	-2
0.062637736316510123	1.3569403513535165	613.71520981694164	-2
0.17618021749609511	1.3161935279335999	630.15248327026188	-2
0.16448587969848236	1.3433983765070492	618.65952193485452	-2
0.28249797364416407	1.2671965653402426	649.59654039425141	-2
0.32156655030754949	1.2459543644601672	658.04313235623454	-2
0.20471759036146436	1.3123584527084911	631.41632746548407	-2
0.23342153029229051	1.3090000985635595	632.41100076560372	-2
0.2573087256773125	1.2927336728113226	638.99850830776143	-2
0.31537708254394464	1.218112480046422	670.41737714224473	-2
0.34276918446417071	1.2101656069949007	673.32297741674938	-2
0.3813698786379115	1.1047861173125111	719.80349389841865	-2
0.37691620084620281	1.154378143652661	697.45835353158338	-2
0.38805132832219297	1.0585234186551222	740.82126278317253	-2
0.36944444271455795	1.1878489904521072	682.62652700605179	-2
0.40675000000000006	1	767.57380382607755	-2
0.42272480804619261	1.0266763851835121	755.03062305828666	-2
0	1.3756666666666666	605.91863433024935	-2
0.02733647615646961	1.360125	612.47043548522856	-2
0.083055133279840834	1.3894638879473806	599.83087665189669	-2
0.11141758962433072	1.3919752821563276	598.5708368757214	-2
0.13525137286855216	1.3763968737962513	604.94561553574351	-2
0.049333447910596323	1.3825963053710539	602.89713074390761	-2
0.19386974918581779	1.3397310155512361	619.84677583403334	-2
0.18250811713193574	1.3668943395713975	608.43371314562432	-2
0.16184924159977221	1.3864131137587123	600.41400655761436	-2
0.30425125193477959	1.295717381505564	636.74009166060171	-2
0.28002251042529663	1.3061428932359089	632.76712606425747	-2
0.32842907731053445	1.2762361983142607	644.64759105447047	-2
0.35228310724017353	1.2549118360959639	653.36386794027737	-2
0.22323941144890364	1.3360467095522657	620.97372922250406	-2
0.24996614540764361	1.3494380721531467	614.77096942988862	-2
0.27414277642924217	1.3318557681842405	621.82689956394893	-2
0.37562108140329631	1.2215828590348621	667.45293427590354	-2
0.41730597052459217	1.1006490304150436	720.9979775115022	-2
0.41528210341800148	1.0708336029891217	734.72950044180686	-2
0.40420160746570949	1.1328437427790228	706.59167825148677	-2
0.40867768962192769	1.1673138533664456	690.85329195815098	-2
0.40120593149028283	1.2007847001658918	676.01410379859749	-2
0.43783333333333335	1	767.28922801552324	-2
0.43900205401081316	1.0526561528233223	742.73834842950737	-2
0.45337499999999997	1.0259960940649162	754.94342277640021	-2
0	1.4067499999999999	592.79451421020883	-2
0.058176737076648596	1.4253984499595875	584.82433171331309	-2
0.10135254119083703	1.4186104249341926	587.42654163964232	-2
0.13284243681405494	1.4152907246604982	588.54782498852285	-2
0.027095378625164632	1.4222916666666667	586.21939006589685	-2
0.21172434904756463	1.3631568606724813	609.59372393155968	-2
0.18920861948605236	1.3967161232555212	595.696347692877	-2
0.16450151409760158	1.4147104128281656	588.44327166996561	-2
0.32724398362220825	1.311960206801335	629.16721188713927	-2
0.31948554831343651	1.3390212815323692	617.70577751649205	-2
0.35126264559601944	1.2972769183063548	634.88926107807742	-2
0.38158491746173262	1.2677627927000839	646.90915697515652	-2
0.3960246258432138	1.2424229368888973	657.64039941035537	-2
0.25241905258792185	1.3792311946275448	602.04388158268227	-2
0.2776944082218481	1.362152704383343	608.78372934793879	-2
0.44265904273511048	1.0832098636100032	728.48812085463737	-2
0.44801628838931784	1.1123451326736442	714.91241671359705	-2
0.4354928846911269	1.1648099632749747	691.25460737944309	-2
0.44968629490682471	1.1419217292094488	701.29422772844794	-2
0.43287697024044125	1.1916144618484616	679.19611952100286	-2
0.42091336926542616	1.2272188610689989	663.61717157118767	-2
0.46891666666666665	1	766.96884520987237	-2
0.47043365737215309	1.0523971354932642	742.28514927097024	-2
0.48323217740128244	1.025806067925128	754.5836895499923	-2
0	1.4378333333333333	579.74014042615295	-2
0.084870079689392877	1.4544780215192408	572.51095087592478	-2
0.048132067382777137	1.4689166666666666	566.66531463797924	-2
0.12868677680228899	1.4528924402955707	572.82686874362003	-2
0.15566279119453741	1.4423078152088327	576.96667036174415	-2
0.22569253371573395	1.387343892072165	599.09272501881696	-2
0.21498575915419185	1.4131409393710648	588.37773789078506	-2
0.20250504768050001	1.4416313803251617	576.6084809414009	-2
0.36119845889882157	1.3378074010249517	617.07320387247114	-2
0.31103974353348768	1.368273962185607	605.40115273608978	-2
0.34583907333010383	1.3766085568111146	600.90895334472475	-2
0.39113041399177156	1.3089866605122624	628.60598767432862	-2
0.42607990991276512	1.3005496686518043	631.08506460766057	-2
0.42378628088861731	1.264669460142313	646.90614445569884	-2
0.27080082531570243	1.4021779457922949	591.94244794684914	-2
0.24310414246040643	1.4096907714777878	589.33239500705668	-2
0.29965099148237384	1.3965113004188676	593.68339722687108	-2
0.47141161253286362	1.0941730994184273	722.73442635661024	-2
0.47853140196130373	1.1321182157757699	704.93347118744089	-2
0.46462982823480337	1.1854377905721734	680.94200231670493	-2
0.45432658355334826	1.2161010977633346	667.46051375096374	-2
0.45182394171274048	1.2485574998054345	653.04090679238698	-2
0.5	1	766.60379989228989	-2
0.49791005815675282	1.0791031891272014	729.11964147163792	-2
0.5016657118495379	1.0488514969099438	743.33677144933006	-2
0.51056747044527451	1.0240938228481193	754.94165006063429	-2
0	1.4689166666666666	566.75273132649784	-2
0.10727561346297722	1.4674246809860625	566.94335952949234	-2
0.07409799693692147	1.4810271262534429	561.50803460008206	-2
0.049100683901107972	1.4980886657951777	554.54122019779777	-2
0.17003819299355521	1.4674690445872711	566.27871485266951	-2
0.13741452111589392	1.4836997798611344	559.89752689888678	-2
0.23324181025217533	1.4368643255466969	578.09079117860722	-2
0.22302919849110925	1.4650030002551493	566.50778531296896	-2
0.19723550302648382	1.4813166408708804	560.13373739762301	-2
0.36829460526496838	1.3630569750630115	606.02672745108566	-2
0.39023122983573949	1.3432699624521478	613.81354995335096	-2
0.32623488098613596	1.3946587824725909	593.78964944327504	-2
0.36407769530966855	1.4027203624735345	589.2807946705426	-2
0.42242890594623694	1.3363172554703384	615.67924577851306	-2
0.45175779958154033	1.2808948051292273	638.72533047532079	-2
0.45596214028314858	1.3216700532568966	620.71071972414825	-2
0.26246407303074859	1.4303726530788061	580.24517461822779	-2
0.30363298068027117	1.4317577846999028	578.72861241484463	-2
0.49655852321719612	1.1075586560107	715.81367133255901	-2
0.49566274100508256	1.1763079721808969	684.01133623478756	-2
0.50897785196587453	1.1331965286931787	703.43741934040884	-2
0.48731655439982152	1.2052451467472192	671.12800058238599	-2
0.48104216972576225	1.2347010629559125	658.09300174167436	-2
0.4774306500715283	1.2647907879192317	644.8120108520427	-2
0.53108333333333335	1	766.18418066864206	-2
0.52582977399920927	1.0913408067035231	722.54559138587035	-2
0.55054218367413543	1.048273700849677	742.45369415675611	-2
0.54988866095519962	1.076522389820102	728.89319933069282	-2
0.53682503558547268	1.0257442785296087	753.6331399590058	-2
0	1.5	553.83824411372632	-2
0.10040679183594688	1.4923734930717132	556.62490966115445	-2
0.075879956599037512	1.5096996220384578	549.61101509119908	-2
0.025705459779650015	1.5155416666666666	547.37321808373258	-2
0.05267777405425296	1.528763176714049	541.84445677824783	-2
0.16738423555410104	1.4949728410427268	554.8819074606605	-2
0.14744923188735731	1.5141065270012788	547.19724285958762	-2
0.11644097451283533	1.5257073729252311	542.71102127254971	-2
0.25498978545784123	1.4679289850003614	564.69052116993817	-2
0.23281358500914748	1.4985893699468098	552.38138992486063	-2
0.19921665009474845	1.511771930266238	547.4907778577076	-2
0.39268123777516006	1.3727103908919347	601.11404879599831	-2
0.33678044137378715	1.4191317504168333	583.16510842907496	-2
0.39457016305889625	1.4031472898418602	588.10423237634643	-2
0.38001018860390201	1.4302998726957021	577.15454071685758	-2
0.44791001617153264	1.370757440035999	599.87851453371559	-2
0.4225532009910859	1.3879678705773379	593.52462739557404	-2
0.48090602526762538	1.2948965413532094	631.35199656814893	-2
0.5007112090881024	1.3207613049670348	619.11100265772677	-2
0.47520066354552909	1.3568151460561058	604.67830146716744	-2
0.28697249637418298	1.4652556521686757	565.11363814642982	-2
0.3442526932616502	1.44413362952833	572.45412452933112	-2
0.32410901830550359	1.4607216030827663	566.08187901089343	-2
0.52006671865401211	1.1990188834078437	672.60642796776267	-2
0.53015950906756282	1.1637066041876281	688.46291229190513	-2
0.55402404736330968	1.1357905641033115	700.51440689330707	-2
0.5491672731044982	1.1077045667070666	714.01813748903999	-2
0.50856664663460505	1.2256226830355663	661.01133775972096	-2
0.51454062422361058	1.253983314249445	647.97203686978946	-2
0.52101764631772729	1.2842782564892943	634.1658070212751	-2
0.5621666666666667	1	765.71770223285716	-2
0.56320179247955837	1.0257857214131387	753.07566317243459	-2
0.57620496184500336	1.062999303487278	734.58531128171489	-2
0.57323653838073407	1.092437544240157	720.41506594662098	-2
0	1.5310833333333334	540.98691162612784	-2
0.085727789917703412	1.538068276758739	537.84675165816827	-2
0.026374080320767213	1.5456764161181213	534.95646459482555	-2
0.052238225311746843	1.5611553108401464	528.53144734736975	-2
0.17373545363455595	1.5218645560949149	543.68353659349145	-2
0.15294674529909955	1.5528357221570448	531.19905775738823	-2
0.11320554163190545	1.5586561760238093	529.19569390346669	-2
0.26777476019373864	1.4973667995760007	552.20766690897347	-2
0.25503640554932078	1.5256064885170515	540.8148665506792	-2
0.21359376450323347	1.5354671012284054	537.50647492877079	-2
0.1877303233025269	1.5454292774413918	533.80306105877321	-2
0.41905373565556225	1.4213277059349891	579.54799607688483	-2
0.39831974492856542	1.4609477621085036	563.71054018863833	-2
0.36181392750965613	1.4634347061580995	563.87262471103531	-2
0.45350808023443179	1.4008876354263589	586.81471235581739	-2
0.52280517334124421	1.3447005624021109	607.60753520305934	-2
0.53237433871042239	1.3131011792838547	620.87469087382226	-2
0.50287985844918515	1.3659923710523565	599.44716216533811	-2
0.50613775741832367	1.3949707316590796	586.91604604605334	-2
0.48167759551059081	1.4144261622007834	579.83708880816289	-2
0.30321283135651256	1.4967592631974267	551.64959943095766	-2
0.3277313871993629	1.4868990930301229	555.10728004775126	-2
0.55303157441516504	1.1945319820822977	673.13359318039079	-2
0.54050759323407449	1.2253534663787182	659.63833241709585	-2
0.5828705810898307	1.1798198211421755	678.47344210485107	-2
0.58149596986322771	1.1492561388747697	692.91010166889384	-2
0.5459506124866027	1.2559709224372404	645.51363194103169	-2
0.5519181543827435	1.286490482030995	631.55712014921824	-2
0.59325000000000006	1	765.18558813699542	-2
0.58829111266758938	1.0318273210975741	749.50718897904346	-2
0.61217224037375084	1.0653706779150605	732.16875274976928	-2
0.60496189509026899	1.0967822598587109	717.03165443466969	-2
0.60649600153152572	1.1316201913144219	700.128136798215	-2
0	1.5621666666666667	528.21323420965928	-2
0.082668180741882979	1.5722666279924937	523.83699072485763	-2
0.026429796553426102	1.5777083333333333	521.82709749173114	-2
0.056639870921344607	1.5932500000000001	515.39527558621842	-2
0.18079230536459379	1.5803093093957845	519.6290788751495	-2
0.14363944086117875	1.5908297650483396	515.77201225989063	-2
0.10811111486553733	1.593956070495673	514.81173223730411	-2
0.28600018949788197	1.5266013724907366	539.75839496544711	-2
0.2367870352817622	1.5506405891674009	530.88897912057735	-2
0.28987583619641383	1.5608330228963991	525.6632433580844	-2
0.21013607663766393	1.5680160652231656	524.22994962818905	-2
0.43393779155881335	1.4585212970848922	563.4089045900954	-2
0.45686049240792465	1.4341655011095573	572.63875601070151	-2
0.42681562759833852	1.4908441529915708	550.2915599626466	-2
0.38433581156087454	1.4937956324478925	550.56819605589362	-2
0.35339228462513173	1.4932158073383157	551.76613552899232	-2
0.55326379389672931	1.38269750692817	589.61067472128445	-2
0.5561748313506425	1.3510998349453651	603.0061250508985	-2
0.56455247580483081	1.3204942457958286	615.83383514741467	-2
0.53332766773251117	1.4027604550347534	582.1884966756154	-2
0.52160602314884685	1.4285009690431669	571.97404408808416	-2
0.48853074864512974	1.444919564605732	566.73715246983545	-2
0.3136512246704195	1.5408059934913005	533.27579716031926	-2
0.33278096136600327	1.5163028472067883	542.84320224280225	-2
0.57204772100759349	1.2202142254771029	660.32931743430913	-2
0.60628264656924469	1.199443924854156	667.9847014001806	-2
0.61729580136805895	1.1628625900629539	684.55538853560165	-2
0.57698763165105338	1.2579096115470396	642.90991847680368	-2
0.58726584873257592	1.2922102446959771	626.92398778984079	-2
0.6243333333333333	1	764.56500773991991	-2
0.62168667511448061	1.0333241549479097	747.81721858064736	-2
0.63736902468868561	1.0554158103730753	736.14945177594768	-2
0.63593165908433202	1.0886429398437847	719.62918065916142	-2
0.63030349768437544	1.1163571925563147	706.26766938402534	-2
0.64862339166645899	1.1523124601032309	687.71502679006119	-2
0	1.5932500000000001	515.50675704555226	-2
0.082272785649688637	1.6010902049149016	512.08010817895092	-2
0.028319935460672303	1.6087916666666668	509.15129184368931	-2
0.054045061867894144	1.6252411474968071	502.40072242779871	-2
0.16779008604847467	1.6209588484227775	503.27901540997391	-2
0.2047799440248978	1.5963992362730715	512.75652892525136	-2
0.12566310560119492	1.625003829754885	502.06533417532512	-2
0.14798090109249909	1.6360444632784017	497.3900707739769	-2
0.084471930610080528	1.6278049740889255	501.2205547509995	-2
0.23683527395995069	1.5798412848948746	518.96985052936066	-2
0.285794226730471	1.590707765416143	513.60498876428244	-2
0.32409989266504646	1.5773364557855833	518.13803262183399	-2
0.46504671094082128	1.4823220696222841	552.25982979454352	-2
0.44088560680179889	1.5208029233044187	537.45136231495246	-2
0.40759923217363203	1.5177926665002062	539.90629555006365	-2
0.37633128846375574	1.5295977534575305	536.11213912142694	-2
0.58226255823284445	1.3773223334321216	590.16048213090528	-2
0.57386709806895908	1.4064756283133109	578.29388788542201	-2
0.5877870837017255	1.3483516509845532	602.26144981766561	-2
0.60376576095662682	1.3201301769769733	613.5176436927635	-2
0.55831254928530782	1.4325227848938278	568.28308594446003	-2
0.54919238302589202	1.4610497298921334	556.9356130101911	-2
0.51967954110840053	1.4661444512278794	556.38816629447513	-2
0.49171286495325933	1.4729912844838593	554.92857083815682	-2
0.34239164233394065	1.5435248737407765	531.4159334786026	-2
0.60254379943918268	1.2297630818122405	654.17048347995785	-2
0.62772719302603297	1.2410826357997304	647.30804149088135	-2
0.63548252607618338	1.190466325325819	670.33027115780339	-2
0.61047267144585893	1.262637614344494	638.67893499034756	-2
0.62302663134740954	1.2940382511422199	623.72566134555586	-2
0.65541666666666654	1	763.81788095375396	-2
0.67095833333333321	1.029360292550868	748.18738711105891	-2
0.6637033095807009	1.0617784172930407	731.81577872737432	-2
0.67366897953642957	1.0884505724750015	717.78349558381069	-2
0.65840235307073203	1.1131618318357452	706.26908396139766	-2
0.65820474726473177	1.1769523541361826	675.20535895618548	-2
0.67810316607003973	1.1419106089237001	690.81165901112001	-2
0	1.6243333333333334	502.86694792789558	-2
0.02705214918534074	1.6400545587723117	496.47445426329512	-2
0.054104298370681606	1.6557757842112897	490.05374688494322	-2
0.20993433720077559	1.6248197356775897	501.16469805281895	-2
0.18631579060352349	1.6506852363422746	491.05912764277622	-2
0.24030321263706766	1.6258136813452189	500.28547267014483	-2
0.12814911002621507	1.6511472937375073	491.47795865083117	-2
0.1526907806490766	1.660494343007243	487.49250952708229	-2
0.10890150279013916	1.6690131982121665	484.43191610877136	-2
0.07924140889578532	1.6717560947792447	483.50562975608341	-2
0.25732649201448854	1.6006449610262694	510.14705237916786	-2
0.30758053333814861	1.6115528276815749	504.70994585308722	-2
0.29077175454262233	1.6379778528282125	494.44194498481818	-2
0.36297540885197344	1.5637662292590153	522.59631101381012	-2
0.35451402872541965	1.601996090956749	507.37913548929276	-2
0.49999999999998662	1.5	543.43993070931833	-2
0.47140684183419934	1.51314091063112	539.33775721898996	-2
0.42621805697857146	1.5438855270302398	528.60078416516319	-2
0.45177083124224154	1.5536322875182211	523.69284705411656	-2
0.40428162556825664	1.5602175994511149	522.74394306951876	-2
0.60306326561802504	1.3982304991912278	579.90286952597796	-2
0.62254970275163746	1.3581126158833861	595.68372052072391	-2
0.60400655287092431	1.4458069870906942	559.93356276089082	-2
0.61912421097384251	1.4217096579131068	568.95569913045347	-2
0.63893816801419323	1.325939112416969	608.47132696002268	-2
0.58170413458861625	1.4680357468420171	552.15556139549267	-2
0.54803618824896105	1.4909767617725846	544.70526608254136	-2
0.6551444654930989	1.2378224539807852	646.82992379067991	-2
0.64266663095196652	1.2679763364418923	634.00459322004997	-2
0.67484601612876538	1.209172566428717	658.67730133770067	-2
0.65576523716549551	1.2979202108667054	619.53871697771797	-2
0.68649999999999989	1	763.05946062226656	-2
0.69132570576513075	1.0661131944148574	728.23393829032409	-2
0.70591013064679775	1.0422577628627676	739.92577837882811	-2
0.70777552443162794	1.0887227173975476	715.53480936474375	-2
0.68883414569210111	1.1125490407912242	704.6728341645304	-2
0.68461699573807822	1.1758034922481186	673.81074070177146	-2
0.70871934050448504	1.1355935312886902	691.66685717432665	-2
0.70732375927589164	1.1620856040602228	678.6572119183445	-2
0	1.6554166666666668	490.29195992850651	-2
0.027067125641977042	1.6711642651360896	483.91988565607176	-2
0.055657349168696107	1.6899505109058661	476.29898321727586	-2
0.21812494240377067	1.6762517879983678	480.37561890897348	-2
0.17851702621813553	1.6968684655288426	472.63064796404865	-2
0.20427915494695534	1.6980067200772784	471.86609376343483	-2
0.25564432485125693	1.6520416587603166	489.47521206918486	-2
0.15198484811474963	1.6898291594887114	475.72874730786077	-2
0.1091033381385883	1.6962536442310485	473.50145065672069	-2
0.085523090002917412	1.7098938251197204	468.18418302610206	-2
0.32206183305006597	1.6392999668911332	493.22858404499141	-2
0.30615904398971217	1.6652551019943003	483.22200965003714	-2
0.3806633445467823	1.5877323893866382	512.37325092237688	-2
0.35244834040215806	1.6410966051582914	491.75850943679626	-2
0.39531393600672687	1.6136669237044228	501.52187770102017	-2
0.38180355271052863	1.6397624775286199	491.49853027006287	-2
0.50704324158464065	1.5311698616851988	530.4228705492269	-2
0.48630810184516193	1.5554849086618858	521.5231212589606	-2
0.43743616008143943	1.5851088259002124	511.54904216378969	-2
0.46928770115352486	1.5825306752398614	511.37766604424326	-2
0.4091267143925581	1.5882707338940012	511.2604931464686	-2
0.64273171192781875	1.3891815494270696	580.9342731861052	-2
0.65857546375539433	1.3556917352449114	594.00839343858172	-2
0.63000863141739338	1.44541846251323	558.34268721261117	-2
0.61285885902476511	1.4726072637268917	548.32805377468037	-2
0.64725279939536506	1.4259531674774095	565.14661387927811	-2
0.67914510173649967	1.3207585784298124	607.51754444102482	-2
0.59668037547315578	1.4957346246223409	539.94906251747955	-2
0.53806828613822166	1.5388258488810167	525.81170891416309	-2
0.57071474458944904	1.5218238215413356	530.91999422972958	-2
0.68330979040282969	1.250249500408311	638.8379439475641	-2
0.68641871268071974	1.2808771286621052	624.63551002370752	-2
0.70738410416109854	1.1969153244307789	661.77614368748698	-2
0.7074378988944876	1.2279644434228054	647.07657337793114	-2
0.71758333333333324	1	762.08636189106187	-2
0.73751245050267866	1.0478356021237367	735.21309077271258	-2
0.73790084615202967	1.0793753712627345	718.39081850736125	-2
0.72338826688448998	1.1118532403077812	702.52841064439042	-2
0.73920101544414896	1.1451199267948751	684.28477465458627	-2
0.73007792071822764	1.1757247280699932	669.95374712778084	-2
0	1.6865000000000001	477.78393679693841	-2
0.03548927945138667	1.7175833333333335	465.28978660769491	-2
0.064836858943302086	1.7367367383841568	457.55815653579833	-2
0.2448955723525246	1.6765615878698075	479.84484528783361	-2
0.23031619446109075	1.6991192763286918	471.07077880280161	-2
0.15933082041470714	1.7162780724229829	465.09437846808459	-2
0.19676597058141859	1.7409220713355968	454.89992887562647	-2
0.21621869700873098	1.7208634529018185	462.62237640953117	-2
0.28732336362104383	1.6914939856320135	473.14793817648513	-2
0.13288311734681849	1.7095429157544739	468.01033666316886	-2
0.104138220906516	1.7364278437760214	457.49429536529442	-2
0.33614560975350993	1.6662854254177044	482.14528226801315	-2
0.31957022945543323	1.693338304845974	471.77706219668835	-2
0.38182999134249274	1.6898815303140042	471.65850045598694	-2
0.41148289139176808	1.63839338483653	491.16654071892935	-2
0.42490380353588503	1.6119674994106186	501.24488431004863	-2
0.39765899665673521	1.664503400782825	481.24407447220381	-2