[Format]      =  4.0
[Frequency]   =  0
[Precision]   =  1e-008
[MinAngle]    =  30
[Depth]       =  1
[LengthUnits] =  centimeters
[ProblemType] =  planar
[Coordinates] =  cartesian
[ACSolver]    =  0
[PrevSoln]    =  ""
[Comment]     =  "Add comments here."
[PointProps]   = 0
[BdryProps]   = 1
  <BeginBdry>
    <BdryName> = "ABC"
    <BdryType> = 2
    <A_0> = 0
    <A_1> = 0
    <A_2> = 0
    <Phi> = 0
    <c0> = 31329713.207066011
    <c0i> = 0
    <c1> = 0
    <c1i> = 0
    <Mu_ssd> = 0
    <Sigma_ssd> = 0
  <EndBdry>
[BlockProps]  = 3
  <BeginBlock>
    <BlockName> = "NdFeB 40 MGOe"
    <Mu_x> = 1.0489999999999999
    <Mu_y> = 1.0489999999999999
    <H_c> = 979000
    <H_cAngle> = 0
    <J_re> = 0
    <J_im> = 0
    <Sigma> = 0.66700000000000004
    <d_lam> = 0
    <Phi_h> = 0
    <Phi_hx> = 0
    <Phi_hy> = 0
    <LamType> = 0
    <LamFill> = 1
    <NStrands> = 0
    <WireD> = 0
    <BHPoints> = 0
  <EndBlock>
  <BeginBlock>
    <BlockName> = "Air"
    <Mu_x> = 1
    <Mu_y> = 1
    <H_c> = 0
    <H_cAngle> = 0
    <J_re> = 0
    <J_im> = 0
    <Sigma> = 0
    <d_lam> = 0
    <Phi_h> = 0
    <Phi_hx> = 0
    <Phi_hy> = 0
    <LamType> = 0
    <LamFill> = 1
    <NStrands> = 0
    <WireD> = 0
    <BHPoints> = 0
  <EndBlock>
  <BeginBlock>
    <BlockName> = "Pure Iron"
    <Mu_x> = 14872
    <Mu_y> = 14872
    <H_c> = 0
    <H_cAngle> = 0
    <J_re> = 0
    <J_im> = 0
    <Sigma> = 10.44
    <d_lam> = 0
    <Phi_h> = 0
    <Phi_hx> = 0
    <Phi_hy> = 0
    <LamType> = 0
    <LamFill> = 1
    <NStrands> = 0
    <WireD> = 0
    <BHPoints> = 21
      0	0
      0.22706499999999999	13.898400000000001
      0.45412999999999998	27.796700000000001
      0.68119499999999999	42.397399999999998
      0.90825999999999996	61.415700000000001
      1.13533	82.382400000000004
      1.36239	144.66900000000001
      1.58935	897.75999999999999
      1.81236	4581.7399999999998
      2.01004	17736.200000000001
      2.1331600000000002	41339.300000000003
      2.1999900000000001	68321.800000000003
      2.2547899999999998	95685.5
      2.2999299999999998	123355
      2.3425099999999999	151083
      2.3787600000000002	178954
      2.4150100000000001	206825
      2.45126	234696
      2.4874999999999998	262568
      2.5237500000000002	290439
      2.5600000000000001	318310
  <EndBlock>
[CircuitProps]  = 0
[NumPoints] = 18
-0.25	0.125	0	0
0.25	0.125	0	0
-0.25	-0.125	0	0
0.25	-0.125	0	0
-0.25	1	0	0
0.25	1	0	0
-0.25	-1	0	0
0.25	-1	0	0
1.25	1	0	0
1.25	-1	0	0
1.75	1	0	0
1.75	-1	0	0
-2.2999999999999998	0	0	0
3.7000000000000002	0	0	0
0.25	0.5	0	0
0.25	-0.5	0	0
1.25	0.5	0	0
1.25	-0.5	0	0
[NumSegments] = 18
0	2	-1	0	0	0
2	3	-1	0	0	0
3	1	-1	0	0	0
1	0	-1	0	0	0
0	4	-1	0	0	0
4	5	-1	0	0	0
5	8	-1	0	0	0
8	10	-1	0	0	0
16	14	-1	0	0	0
14	1	-1	0	0	0
15	3	-1	0	0	0
6	2	-1	0	0	0
6	7	-1	0	0	0
15	17	-1	0	0	0
7	9	-1	0	0	0
9	11	-1	0	0	0
17	16	-1	0	0	0
10	11	-1	0	0	0
[NumArcSegments] = 2
12	13	180	1	0	0	0
13	12	180	1	0	0	0
[NumHoles] = 0
[NumBlockLabels] = 4
-0.014	0.0050000000000000001	1	-1	0	90	0	1	0
-1.3799999999999999	0.76000000000000001	2	-1	0	0	0	1	0
0.40000000000000002	0.75	3	-1	0	0	0	1	0
0.94999999999999996	-0.12	2	-1	0	0	0	1	0
