[Format]      =  4.0
[Frequency]   =  0
[Precision]   =  1e-008
[MinAngle]    =  30
[Depth]       =  1
[LengthUnits] =  centimeters
[ProblemType] =  planar
[Coordinates] =  cartesian
[ACSolver]    =  0
[PrevSoln]    =  ""
[Comment]     =  "Add comments here."
[PointProps]   = 0
[BdryProps]   = 1
  <BeginBdry>
    <BdryName> = "Boundary limit"
    <BdryType> = 0
    <A_0> = 0
    <A_1> = 0
    <A_2> = 0
    <Phi> = 0
    <c0> = 0
    <c0i> = 0
    <c1> = 0
    <c1i> = 0
    <Mu_ssd> = 0
    <Sigma_ssd> = 0
  <EndBdry>
[BlockProps]  = 3
  <BeginBlock>
    <BlockName> = "Air"
    <Mu_x> = 1
    <Mu_y> = 1
    <H_c> = 0
    <H_cAngle> = 0
    <J_re> = 0
    <J_im> = 0
    <Sigma> = 0
    <d_lam> = 0
    <Phi_h> = 0
    <Phi_hx> = 0
    <Phi_hy> = 0
    <LamType> = 0
    <LamFill> = 1
    <NStrands> = 0
    <WireD> = 0
    <BHPoints> = 0
  <EndBlock>
  <BeginBlock>
    <BlockName> = "18 AWG"
    <Mu_x> = 1
    <Mu_y> = 1
    <H_c> = 0
    <H_cAngle> = 0
    <J_re> = 0
    <J_im> = 0
    <Sigma> = 58
    <d_lam> = 0
    <Phi_h> = 0
    <Phi_hx> = 0
    <Phi_hy> = 0
    <LamType> = 3
    <LamFill> = 1
    <NStrands> = 1
    <WireD> = 1.0239652968433499
    <BHPoints> = 0
  <EndBlock>
  <BeginBlock>
    <BlockName> = "M-22 Steel"
    <Mu_x> = 1
    <Mu_y> = 1
    <H_c> = 0
    <H_cAngle> = 0
    <J_re> = 0
    <J_im> = 0
    <Sigma> = 1.8999999999999999
    <d_lam> = 0.63500000000000001
    <Phi_h> = 0
    <Phi_hx> = 0
    <Phi_hy> = 0
    <LamType> = 0
    <LamFill> = 0.97999999999999998
    <NStrands> = 0
    <WireD> = 0
    <BHPoints> = 47
      0	0
      0.050000000000000003	15.120714
      0.10000000000000001	22.718292000000002
      0.14999999999999999	27.842732999999999
      0.20000000000000001	31.871434000000001
      0.25	35.365043999999997
      0.29999999999999999	38.600588000000002
      0.34999999999999998	41.736201999999999
      0.40000000000000002	44.873978999999999
      0.45000000000000001	48.087806999999998
      0.5	51.437235999999999
      0.55000000000000004	54.975220999999998
      0.59999999999999998	58.752992999999996
      0.65000000000000002	62.823644000000002
      0.69999999999999996	67.245284999999996
      0.75	72.084406000000001
      0.80000000000000004	77.420100000000005
      0.84999999999999998	83.350020999999998
      0.90000000000000002	89.999611999999999
      0.94999999999999996	97.537352999999996
      1	106.20140600000001
      1.05	116.34846400000001
      1.1000000000000001	128.54732899999999
      1.1499999999999999	143.76543100000001
      1.2	163.75416899999999
      1.25	191.86815799999999
      1.3	234.833507
      1.3500000000000001	306.50976900000001
      1.3999999999999999	435.255202
      1.45	674.911968
      1.5	1108.3255690000001
      1.55	1813.085468
      1.6000000000000001	2801.2174209999998
      1.6499999999999999	4053.6531169999998
      1.7	5591.10689
      1.75	7448.318413
      1.8	9708.81567
      1.8500000000000001	12486.931615
      1.8999999999999999	16041.483644
      1.95	21249.420623999998
      2	31313.495878000002
      2.0499999999999998	53589.446877000002
      2.1000000000000001	88477.484601000004
      2.1499999999999999	124329.41054
      2.2000000000000002	159968.5693
      2.25	197751.604272
      2.2999999999999998	234024.75134700001
  <EndBlock>
[CircuitProps]  = 1
  <BeginCircuit>
    <CircuitName> = "Coil"
    <TotalAmps_re> = 5
    <TotalAmps_im> = 0
    <CircuitType> = 1
  <EndCircuit>
[NumPoints] = 89
1	0	0	0
-1	0	0	0
-1	2.5	0	0
1	2.5	0	0
1	-2.5	0	0
-1	-2.5	0	0
2.5	1	0	0
2.5	-1	0	0
-2.5	1	0	0
-2.5	-1	0	0
3	1	0	0
3	-1	0	0
-3	1	0	0
-3	-1	0	0
1	-3	0	0
-1	-3	0	0
1	3	0	0
-1	3	0	0
-1.3	3	0	0
1.3	3	0	0
-1.3	-3	0	0
1.3	-3	0	0
3	1.3	0	0
3	-1.3	0	0
-3	1.3	0	0
-3	-1.3	0	0
4	0	0	0
-4	0	0	0
5	0	0	0
-5	0	0	0
-1	2.6000000000000001	0	0
-1	2.8999999999999999	0	0
-1.2	2.6000000000000001	0	0
-1.2	2.8999999999999999	0	0
1.2	2.6000000000000001	0	0
1.2	2.8999999999999999	0	0
-1.2	-2.8999999999999999	0	0
-1.2	-2.6000000000000001	0	0
-1	-2.6000000000000001	0	0
-1	-2.8999999999999999	0	0
1	-2.6000000000000001	0	0
1	-2.8999999999999999	0	0
1.2	-2.6000000000000001	0	0
1.2	-2.8999999999999999	0	0
1	2.6000000000000001	0	0
1	2.8999999999999999	0	0
2.6000000000000001	1	0	0
2.8999999999999999	1	0	0
2.6000000000000001	1.2	0	0
2.8999999999999999	1.2	0	0
-2.6000000000000001	1	0	0
-2.8999999999999999	1	0	0
-2.6000000000000001	1.2	0	0
-2.8999999999999999	1.2	0	0
-2.6000000000000001	-1.2	0	0
-2.8999999999999999	-1.2	0	0
-2.6000000000000001	-1	0	0
-2.8999999999999999	-1	0	0
2.6000000000000001	-1	0	0
2.8999999999999999	-1	0	0
2.6000000000000001	-1.2	0	0
2.8999999999999999	-1.2	0	0
-19.300000000000001	23.399999999999999	0	0
10	0	0	0
-10	0	0	0
0.5	3.7999999999999998	0	0
-0.5	3.7999999999999998	0	0
-0.5	3.9700000000000002	0	0
0.5	3.9700000000000002	0	0
-0.5	3.9686269665968861	0	0
0.5	3.9686269665968861	0	0
3.9700000000000002	0.5	0	0
3.9700000000000002	-0.5	0	0
-3.9700000000000002	0.5	0	0
-3.9700000000000002	-0.5	0	0
0.5	-3.9700000000000002	0	0
-0.5	-3.9700000000000002	0	0
3.7999999999999998	0.5	0	0
3.7999999999999998	-0.5	0	0
-3.7999999999999998	0.5	0	0
-3.7999999999999998	-0.5	0	0
-0.5	-3.7999999999999998	0	0
0.5	-3.7999999999999998	0	0
-3.9686269665968861	-0.5	0	0
-3.9686269665968856	0.5	0	0
3.9686269665968861	0.5	0	0
3.9686269665968852	-0.5	0	0
0.5	-3.9686269665968781	0	0
-0.5	-3.9686269665968776	0	0
[NumSegments] = 76
2	30	-1	0	0	0
17	18	-1	0	0	0
3	44	-1	0	0	0
16	19	-1	0	0	0
6	46	-1	0	0	0
10	22	-1	0	0	0
7	58	-1	0	0	0
11	23	-1	0	0	0
4	40	-1	0	0	0
14	21	-1	0	0	0
5	38	-1	0	0	0
15	20	-1	0	0	0
9	56	-1	0	0	0
13	25	-1	0	0	0
8	50	-1	0	0	0
12	24	-1	0	0	0
30	31	-1	0	0	0
31	17	-1	0	0	0
38	39	-1	0	0	0
39	15	-1	0	0	0
40	41	-1	0	0	0
41	14	-1	0	0	0
44	45	-1	0	0	0
45	16	-1	0	0	0
37	38	-1	0	0	0
36	39	-1	0	0	0
37	36	-1	0	0	0
42	43	-1	0	0	0
43	41	-1	0	0	0
40	42	-1	0	0	0
32	30	-1	0	0	0
31	33	-1	0	0	0
33	32	-1	0	0	0
35	34	-1	0	0	0
34	44	-1	0	0	0
45	35	-1	0	0	0
46	47	-1	0	0	0
47	10	-1	0	0	0
50	51	-1	0	0	0
51	12	-1	0	0	0
56	57	-1	0	0	0
57	13	-1	0	0	0
58	59	-1	0	0	0
59	11	-1	0	0	0
51	53	-1	0	0	0
53	52	-1	0	0	0
52	50	-1	0	0	0
54	56	-1	0	0	0
57	55	-1	0	0	0
55	54	-1	0	0	0
48	49	-1	0	0	0
48	46	-1	0	0	0
49	47	-1	0	0	0
60	58	-1	0	0	0
61	60	-1	0	0	0
61	59	-1	0	0	0
66	65	-1	0	0	0
67	69	-1	0	0	0
69	66	-1	0	0	0
68	70	-1	0	0	0
70	65	-1	0	0	0
79	80	-1	0	0	0
80	83	-1	0	0	0
83	74	-1	0	0	0
73	84	-1	0	0	0
84	79	-1	0	0	0
77	85	-1	0	0	0
85	71	-1	0	0	0
77	78	-1	0	0	0
78	86	-1	0	0	0
86	72	-1	0	0	0
82	87	-1	0	0	0
87	75	-1	0	0	0
76	88	-1	0	0	0
88	81	-1	0	0	0
81	82	-1	0	0	0
[NumArcSegments] = 24
1	0	180	1	0	0	0
0	1	180	1	0	0	0
2	8	45	1	0	0	0
9	5	45	1	0	0	0
4	7	45	1	0	0	0
6	3	45	1	0	0	0
19	18	100	1	0	0	0
24	25	100	1	0	0	0
20	21	100	1	0	0	0
23	22	100	1	0	0	0
26	85	7.1807557814582816	1	0	0	0
27	83	7.1807557814582816	1	0	0	0
28	29	180	1	0	0	0
29	28	180	1	0	0	0
64	63	180	1	1	0	0
63	64	180	1	1	0	0
69	84	75.638488437083438	1	0	0	0
70	69	14.361511562916563	1	0	0	0
83	88	75.638488437083325	1	0	0	0
84	27	7.1807557814582816	1	0	0	0
85	70	75.638488437083438	1	0	0	0
86	26	7.1807557814582816	1	0	0	0
87	86	75.638488437083296	1	0	0	0
88	87	14.361511562916563	1	0	0	0
[NumHoles] = 0
[NumBlockLabels] = 17
-2.6000000000000001	6.7999999999999998	1	-1	0	0	0	1	0
-3.2999999999999998	3.1000000000000001	3	-1	0	0	0	1	0
2.1000000000000001	2.3999999999999999	1	-1	0	0	0	1	0
-0.5	1.5	3	-1	0	0	0	1	0
-1.1299999999999999	2.75	2	-1	1	0	0	500	0
1.0900000000000001	2.77	2	-1	1	0	0	-500	0
2.7599999999999998	1.1100000000000001	2	-1	1	0	0	-500	0
2.7200000000000002	-1.0900000000000001	2	-1	1	0	0	500	0
-2.79	1.1299999999999999	2	-1	1	0	0	500	0
-2.7799999999999998	-1.0900000000000001	2	-1	1	0	0	-500	0
-1.0900000000000001	-2.6600000000000001	2	-1	1	0	0	-500	0
1.1100000000000001	-2.6600000000000001	2	-1	1	0	0	500	0
-0.16	0.12	1	-1	0	0	0	1	0
0.080000000000000002	3.9399999999999999	3	-1	0	0	0	1	0
-3.8799999999999999	0.23999999999999999	3	-1	0	0	0	1	0
3.8900000000000001	0.12	3	-1	0	0	0	1	0
0.10000000000000001	-3.8700000000000001	3	-1	0	0	0	1	0
