[Format]      =  1
[Precision]   =  1e-008
[MinAngle]    =  20
[Depth]       =  1000
[LengthUnits] =  millimeters
[ProblemType] =  planar
[Coordinates] =  cartesian
[Comment]     =  "Add comments here."
[PointProps]   = 0
[BdryProps]   = 1
  <BeginBdry>
    <BdryName> = "Boundary condition"
    <BdryType> = 0
    <Vs> = 0
    <qs> = 0
    <c0> = 0
    <c1> = 0
  <EndBdry>
[BlockProps]  = 3
  <BeginBlock>
    <BlockName> = "Air"
    <ex> = 1
    <ey> = 1
    <qv> = 0
  <EndBlock>
  <BeginBlock>
    <BlockName> = "Rubber"
    <ex> = 3
    <ey> = 3
    <qv> = 0
  <EndBlock>
  <BeginBlock>
    <BlockName> = "PVC"
    <ex> = 3
    <ey> = 3
    <qv> = 0
  <EndBlock>
[ConductorProps]  = 3
  <BeginConductor>
    <ConductorName> = "Zero"
    <Vc> = 0
    <qc> = 0
    <ConductorType> = 1
  <EndConductor>
  <BeginConductor>
    <ConductorName> = "U"
    <Vc> = 9800
    <qc> = 0
    <ConductorType> = 1
  <EndConductor>
  <BeginConductor>
    <ConductorName> = "-U/2"
    <Vc> = -4900
    <qc> = 0
    <ConductorType> = 1
  <EndConductor>
[NumPoints] = 16
0	21.600000000000001	0	0	0
0	1.6000000000000001	0	0	0
0	19.600000000000001	0	0	0
0	3.6000000000000001	0	0	0
-1.3856406460551021	-0.79999999999999971	0	0	0
-18.706148721743876	-10.799999999999995	0	0	0
-3.1176914536239795	-1.7999999999999992	0	0	0
-16.974097914175001	-9.7999999999999972	0	0	0
1.3856406460551014	-0.80000000000000071	0	0	0
18.706148721743869	-10.80000000000001	0	0	0
3.1176914536239781	-1.8000000000000016	0	0	0
16.974097914174994	-9.8000000000000096	0	0	0
-40	0	0	0	0
40	0	0	0	0
22	0	0	0	0
-22	0	0	0	0
[NumSegments] = 0
[NumArcSegments] = 16
1	0	180	1	0	0	0	0
0	1	180	1	0	0	0	0
3	2	180	1	0	0	0	2
2	3	180	1	0	0	0	2
4	5	180	1	0	0	0	0
5	4	180	1	0	0	0	0
6	7	180	1	0	0	0	3
7	6	180	1	0	0	0	3
8	9	180	1	0	0	0	0
9	8	180	1	0	0	0	0
10	11	180	1	0	0	0	3
11	10	180	1	0	0	0	3
12	13	180	1	1	0	0	0
13	12	180	1	1	0	0	0
15	14	180	1	0	0	0	1
14	15	180	1	0	0	0	1
[NumHoles] = 3
-2.7000000000000002	10.800000000000001	0
-12.699999999999999	-7.5	0
9.1999999999999993	-6.7000000000000002	0
[NumBlockLabels] = 5
-20.300000000000001	28.300000000000001	1	-1	0	0
-15.9	8.3000000000000007	3	-1	0	0
-16.5	0.5	2	-1	0	0
8.8000000000000007	12.4	2	-1	0	0
14.199999999999999	2	2	-1	0	0
