[Format]      =  4.0
[Frequency]   =  0
[Precision]   =  1e-008
[MinAngle]    =  30
[Depth]       =  1
[LengthUnits] =  millimeters
[ProblemType] =  planar
[Coordinates] =  cartesian
[ACSolver]    =  0
[PrevSoln]    =  ""
[Comment]     =  "Add comments here."
[PointProps]   = 0
[BdryProps]   = 1
  <BeginBdry>
    <BdryName> = "Boundary condition"
    <BdryType> = 0
    <A_0> = 0
    <A_1> = 0
    <A_2> = 0
    <Phi> = 0
    <c0> = 0
    <c0i> = 0
    <c1> = 0
    <c1i> = 0
    <Mu_ssd> = 0
    <Sigma_ssd> = 0
  <EndBdry>
[BlockProps]  = 3
  <BeginBlock>
    <BlockName> = "Air"
    <Mu_x> = 1
    <Mu_y> = 1
    <H_c> = 0
    <H_cAngle> = 0
    <J_re> = 0
    <J_im> = 0
    <Sigma> = 0
    <d_lam> = 0
    <Phi_h> = 0
    <Phi_hx> = 0
    <Phi_hy> = 0
    <LamType> = 0
    <LamFill> = 1
    <NStrands> = 0
    <WireD> = 0
    <BHPoints> = 0
  <EndBlock>
  <BeginBlock>
    <BlockName> = "18 AWG"
    <Mu_x> = 1
    <Mu_y> = 1
    <H_c> = 0
    <H_cAngle> = 0
    <J_re> = 0
    <J_im> = 0
    <Sigma> = 58
    <d_lam> = 0
    <Phi_h> = 0
    <Phi_hx> = 0
    <Phi_hy> = 0
    <LamType> = 3
    <LamFill> = 1
    <NStrands> = 1
    <WireD> = 1.0239652968433499
    <BHPoints> = 0
  <EndBlock>
  <BeginBlock>
    <BlockName> = "M-22"
    <Mu_x> = 1
    <Mu_y> = 1
    <H_c> = 0
    <H_cAngle> = 0
    <J_re> = 0
    <J_im> = 0
    <Sigma> = 2.0299999999999998
    <d_lam> = 0
    <Phi_h> = 0
    <Phi_hx> = 0
    <Phi_hy> = 0
    <LamType> = 0
    <LamFill> = 1
    <NStrands> = 0
    <WireD> = 0
    <BHPoints> = 37
      0	0
      0.062675059890913154	27.104000000000003
      0.065847414262564477	27.385999999999999
      0.088958667088303592	29.443999999999996
      0.10345689784923273	30.688666666666666
      0.11886019395528903	31.985333333333333
      0.13381189250971706	33.337000000000003
      0.1827374279959727	37.741999999999997
      0.1908917528159475	38.531000000000006
      0.79423287231542106	140.21999999999997
      0.93833452157187403	197.23666666666662
      0.98184152670232427	218.72666666666669
      1.0144621481165026	235.13666666666668
      1.0525243045152348	258.07333333333332
      1.1473712001398102	348.44333333333327
      1.1946053827861141	428.69666666666672
      1.2319025459637043	506.01666666666665
      1.3777887839557001	1078.6333333333332
      1.3796362335120236	1089.8666666666663
      1.4035174688863727	1313.6666666666665
      1.4104053915927715	1383.6333333333332
      1.4270025673844073	1567.0666666666668
      1.5118032580954526	2920.4333333333329
      1.5314769966898023	3377
      1.6172204229743854	5851.9333333333325
      1.6733003407494156	7904.9666666666672
      1.6896261282870839	8588.6333333333314
      1.7699390724013586	12604.333333333332
      1.8054637506247513	14878.666666666666
      1.8658202043226608	20308.333333333332
      1.8837508943760881	22295.666666666664
      1.9297459556186265	28896.666666666664
      1.9864586913965505	44689.666666666664
      2.0114120646137197	57942
      2.2345033384613493	228390
      2.3083302348557941	287060
      2.3520983727406923	321810
  <EndBlock>
[CircuitProps]  = 1
  <BeginCircuit>
    <CircuitName> = "Coil"
    <TotalAmps_re> = 5
    <TotalAmps_im> = 0
    <CircuitType> = 1
  <EndCircuit>
[NumPoints] = 22
0	0	0	0
0	10	0	0
10	0	0	0
10	10	0	0
2	2	0	0
2	8	0	0
10	8	0	0
10	2	0	0
11	10	0	0
13	10	0	0
11	0	0	0
13	0	0	0
-1	7	0	0
-1	3	0	0
0	3	0	0
0	7	0	0
2	3	0	0
2	7	0	0
3	7	0	0
3	3	0	0
-12	5	0	0
21	5	0	0
[NumSegments] = 22
1	3	-1	0	0	0
3	6	-1	0	0	0
1	15	-1	0	0	0
0	2	-1	0	0	0
7	2	-1	0	0	0
4	7	-1	0	0	0
5	17	-1	0	0	0
5	6	-1	0	0	0
8	9	-1	0	0	0
9	11	-1	0	0	0
11	10	-1	0	0	0
8	10	-1	0	0	0
14	0	-1	0	0	0
15	14	-1	0	0	0
16	4	-1	0	0	0
17	16	-1	0	0	0
12	13	-1	0	0	0
13	14	-1	0	0	0
12	15	-1	0	0	0
17	18	-1	0	0	0
18	19	-1	0	0	0
16	19	-1	0	0	0
[NumArcSegments] = 2
20	21	180	1	1	0	0
21	20	180	1	1	0	0
[NumHoles] = 0
[NumBlockLabels] = 5
4.5999999999999996	9.0999999999999996	3	-1	0	0	0	1	0
11.800000000000001	6.0999999999999996	3	-1	0	0	0	1	0
-0.59999999999999998	5.0999999999999996	2	-1	1	0	0	500	0
2.3999999999999999	5.0999999999999996	2	-1	1	0	0	-500	0
-8	6.2999999999999998	1	-1	0	0	0	1	0
