[Format]      =  4.0
[Frequency]   =  0
[Precision]   =  1e-008
[MinAngle]    =  27
[Depth]       =  12
[LengthUnits] =  millimeters
[ProblemType] =  planar
[Coordinates] =  cartesian
[ACSolver]    =  0
[PrevSoln]    =  ""
[Comment]     =  "Add comments here."
[PointProps]   = 0
[BdryProps]   = 1
  <BeginBdry>
    <BdryName> = "A=0"
    <BdryType> = 0
    <A_0> = 0
    <A_1> = 0
    <A_2> = 0
    <Phi> = 0
    <c0> = 0
    <c0i> = 0
    <c1> = 0
    <c1i> = 0
    <Mu_ssd> = 0
    <Sigma_ssd> = 0
  <EndBdry>
[BlockProps]  = 3
  <BeginBlock>
    <BlockName> = "Air"
    <Mu_x> = 1
    <Mu_y> = 1
    <H_c> = 0
    <H_cAngle> = 0
    <J_re> = 0
    <J_im> = 0
    <Sigma> = 0
    <d_lam> = 0
    <Phi_h> = 0
    <Phi_hx> = 0
    <Phi_hy> = 0
    <LamType> = 0
    <LamFill> = 1
    <NStrands> = 0
    <WireD> = 0
    <BHPoints> = 0
  <EndBlock>
  <BeginBlock>
    <BlockName> = "Pure Iron"
    <Mu_x> = 14872
    <Mu_y> = 14872
    <H_c> = 0
    <H_cAngle> = 0
    <J_re> = 0
    <J_im> = 0
    <Sigma> = 10.44
    <d_lam> = 0
    <Phi_h> = 0
    <Phi_hx> = 0
    <Phi_hy> = 0
    <LamType> = 0
    <LamFill> = 1
    <NStrands> = 0
    <WireD> = 0
    <BHPoints> = 21
      0	0
      0.22706499999999999	13.898400000000001
      0.45412999999999998	27.796700000000001
      0.68119499999999999	42.397399999999998
      0.90825999999999996	61.415700000000001
      1.13533	82.382400000000004
      1.36239	144.66900000000001
      1.58935	897.75999999999999
      1.81236	4581.7399999999998
      2.01004	17736.200000000001
      2.1331600000000002	41339.300000000003
      2.1999900000000001	68321.800000000003
      2.2547899999999998	95685.5
      2.2999299999999998	123355
      2.3425099999999999	151083
      2.3787600000000002	178954
      2.4150100000000001	206825
      2.45126	234696
      2.4874999999999998	262568
      2.5237500000000002	290439
      2.5600000000000001	318310
  <EndBlock>
  <BeginBlock>
    <BlockName> = "12 AWG"
    <Mu_x> = 1
    <Mu_y> = 1
    <H_c> = 0
    <H_cAngle> = 0
    <J_re> = 0
    <J_im> = 0
    <Sigma> = 58
    <d_lam> = 0
    <Phi_h> = 0
    <Phi_hx> = 0
    <Phi_hy> = 0
    <LamType> = 3
    <LamFill> = 1
    <NStrands> = 1
    <WireD> = 2.0530176819291301
    <BHPoints> = 0
  <EndBlock>
[CircuitProps]  = 4
  <BeginCircuit>
    <CircuitName> = "Positive"
    <TotalAmps_re> = 0.21149999999999999
    <TotalAmps_im> = 0
    <CircuitType> = 1
  <EndCircuit>
  <BeginCircuit>
    <CircuitName> = "Negative"
    <TotalAmps_re> = -0.21149999999999999
    <TotalAmps_im> = 0
    <CircuitType> = 1
  <EndCircuit>
  <BeginCircuit>
    <CircuitName> = "ReactionPlus"
    <TotalAmps_re> = 0
    <TotalAmps_im> = 0
    <CircuitType> = 1
  <EndCircuit>
  <BeginCircuit>
    <CircuitName> = "ReactionMinus"
    <TotalAmps_re> = 0
    <TotalAmps_im> = 0
    <CircuitType> = 1
  <EndCircuit>
[NumPoints] = 49
0	0	0	0
1.867524689579125e-014	61	0	3
22.399999999999999	13.050000000000001	0	0
22.399999999999999	47.950000000000003	0	0
64.299999999999997	61	0	0
64.299999999999997	-2.449212707644755e-016	0	0
63.299999999999997	34.437321424521883	0	0
63.300000000000018	26.562678575478081	0	0
22.399999999999999	46.950000000000003	0	3
22.399999999999999	14.050000000000001	0	3
24.399999999999999	46.950000000000003	0	0
24.399999999999999	14.050000000000001	0	0
2.8747634155980311e-015	46.950000000000003	0	0
-1.9999999999999969	46.950000000000003	0	0
-1.9999999999999989	14.050000000000001	0	0
8.6028596356021995e-016	14.050000000000001	0	0
29.350000000000001	47.950000000000003	0	3
29.349999999999991	34.647288270665548	0	0
29.350000000000001	13.050000000000001	0	0
29.349999999999991	26.352711729334441	0	0
56	45	0	0
56	51	0	0
58	51	0	0
58	43.446524630185507	0	0
36.599999999999987	16	0	0
36.599999999999987	10	0	0
34.599999999999987	10	0	0
34.599999999999987	17.553475369814489	0	0
57	47	0	3
58	47.950000000000003	0	5
57	47.950000000000003	0	5
57	46.950000000000003	0	5
58	46.950000000000003	0	5
64.299999999999997	46.950000000000003	0	5
65.400000000000006	46.950000000000003	0	5
65.400000000000006	48	0	5
64.299999999999997	48	0	5
34.599999999999987	16.29456280817875	0	5
35.100000000000001	16.300000000000001	0	5
35.100000000000001	15.199999999999999	0	5
29.350000000000001	15.199999999999999	0	5
28	15.199999999999999	0	5
28	16.5	0	5
29.350000000000001	16.5	0	0
34.600000000000001	15.199999999999999	0	5
62.299999999999997	30.5	0	0
30.299999999999997	30.5	0	0
141.65166490418505	30.5	0	0
-49.051664904185074	30.5	0	0
[NumSegments] = 48
2	9	-1	0	0	0
4	36	-1	0	0	0
1	4	-1	0	0	0
6	7	-1	0	0	0
8	3	-1	0	0	0
8	10	-1	0	0	3
9	8	-1	0	0	0
11	9	-1	0	0	3
11	10	-1	0	0	3
12	13	-1	0	0	0
14	15	-1	0	0	0
17	16	-1	0	0	3
18	40	-1	0	0	0
20	21	-1	0	0	0
21	22	-1	0	0	0
22	29	-1	0	0	0
24	25	-1	0	0	0
25	26	-1	0	0	0
26	44	-1	0	0	0
29	32	-1	0	0	0
30	28	-1	0	0	3
29	30	-1	0	0	5
28	31	-1	0	0	5
32	23	-1	0	0	0
31	32	-1	0	0	5
33	5	-1	0	0	0
33	34	-1	0	0	5
36	33	-1	0	0	0
35	36	-1	0	0	5
37	27	-1	0	0	0
37	38	-1	0	0	5
38	39	-1	0	0	5
40	43	-1	0	0	0
40	41	-1	0	0	5
41	42	-1	0	0	5
43	19	-1	0	0	0
42	43	-1	0	0	5
44	37	-1	0	0	0
39	44	-1	0	0	5
34	35	-1	0	0	0
2	18	-1	0	0	0
3	16	-1	0	0	0
0	5	-1	0	0	0
15	0	-1	0	0	0
1	12	-1	0	0	0
13	14	-1	0	0	0
12	15	-1	0	0	0
19	17	-1	0	0	0
[NumArcSegments] = 8
45	46	180	5	0	0	0
46	45	180	5	0	0	0
47	48	180	5	0	0	0
48	47	180	5	0	0	0
20	17	110.02204707088819	5	0	0	0
6	23	34.855139167893682	5	0	0	0
19	27	34.146446340596526	5	0	0	0
24	7	110.73073989818491	5	0	0	0
[NumHoles] = 0
[NumBlockLabels] = 11
-27.600000000000001	51.399999999999999	1	-1	0	0	0	1	0
-1.3	41.899999999999999	3	-1	1	0	0	4500	0
23.300000000000001	42.799999999999997	3	-1	2	0	0	4500	0
15.699999999999999	55.200000000000003	2	-1	0	0	0	1	0
46.100000000000001	34	2	-1	0	0	0	1	0
25.899999999999999	33.200000000000003	1	-1	0	0	0	1	0
38.299999999999997	45.399999999999999	1	-1	0	0	0	1	0
28.699999999999999	15.9	3	-1	3	0	0	5	0
34.799999999999997	15.9	3	-1	4	0	0	5	0
57.5	47.5	3	-1	3	0	0	5	0
64.700000000000003	47.5	3	-1	4	0	0	5	0
